<?xml version="1.0" encoding="UTF-8"?>
<!DOCTYPE transitSchedule SYSTEM "http://www.matsim.org/files/dtd/transitSchedule_v1.dtd">
<transitSchedule>
<transitStops>
<stopFacility id="192" x="5" y="0" linkRefId="1-2"/>
<stopFacility id="293" x="105" y="0" linkRefId="2-3"/>
<stopFacility id="495" x="20005" y="0" linkRefId="4-5"/>
<stopFacility id="596" x="20105" y="0" linkRefId="5-6"/>
<stopFacility id="794" x="20000" y="-5" linkRefId="7-4"/>
<stopFacility id="498" x="20000" y="14995" linkRefId="4-8"/>
<stopFacility id="-191" x="0" y="5" linkRefId="0-1"/>
<stopFacility id="198" x="19995" y="15000" linkRefId="1-8"/>
<stopFacility id="899" x="21900" y="16995" linkRefId="8-9"/>
<stopFacility id="8910" x="21995" y="16900" linkRefId="8-10"/>
<stopFacility id="9911" x="-100" y="1150" linkRefId="9-11"/>
</transitStops>
<transitLine id="gelb">
  <transitRoute id="gelb_1">
    <transportMode>pt</transportMode>
    <routeProfile>
      <stop refId="192" departureOffset="00:00:00" arrivalOffset="00:00:00" awaitDeparture="true"/>
      <stop refId="293" departureOffset="00:00:30" arrivalOffset="00:00:30" awaitDeparture="true"/>
      <stop refId="495" departureOffset="00:30:00" arrivalOffset="00:30:00" awaitDeparture="true"/>
      <stop refId="596" departureOffset="00:30:30" arrivalOffset="00:30:30" awaitDeparture="true"/>
    </routeProfile>
    <route>
      <link refId="1-2"/>
      <link refId="2-3"/>
      <link refId="3-4"/>
      <link refId="4-5"/>
      <link refId="5-6"/>
    </route>
    <departures>
      <departure id="1000" departureTime="05:05:00" vehicleRefId="1000"/>
      <departure id="1001" departureTime="06:05:00" vehicleRefId="1001"/>
    </departures>
  </transitRoute>
</transitLine>
<transitLine id="south">
  <transitRoute id="south_1">
    <transportMode>pt</transportMode>
    <routeProfile>
      <stop refId="794" departureOffset="00:00:00" arrivalOffset="00:00:00" awaitDeparture="true"/>
      <stop refId="498" departureOffset="00:00:30" arrivalOffset="00:00:30" awaitDeparture="true"/>
      <stop refId="899" departureOffset="00:30:00" arrivalOffset="00:30:00" awaitDeparture="true"/>
    </routeProfile>
    <route>
      <link refId="7-4"/>
      <link refId="4-8"/>
      <link refId="8-9"/>
    </route>
    <departures>
      <departure id="1000" departureTime="05:40:00" vehicleRefId="1002"/>
      <departure id="1001" departureTime="06:36:00" vehicleRefId="1003"/>
    </departures>
  </transitRoute>
</transitLine>
<transitLine id="southeast">
  <transitRoute id="southeast_1">
    <transportMode>pt</transportMode>
    <routeProfile>
      <stop refId="-191" departureOffset="00:00:00" arrivalOffset="00:00:00" awaitDeparture="true"/>
      <stop refId="198" departureOffset="00:00:30" arrivalOffset="00:00:30" awaitDeparture="true"/>
      <stop refId="8910" departureOffset="00:30:00" arrivalOffset="00:30:00" awaitDeparture="true"/>
    </routeProfile>
    <route>
      <link refId="-1-1"/>
      <link refId="1-8"/>
      <link refId="8-10"/>
    </route>
    <departures>
      <departure id="1000" departureTime="06:05:00" vehicleRefId="1004"/>
      <departure id="1001" departureTime="07:05:00" vehicleRefId="1005"/>
    </departures>
  </transitRoute>
</transitLine>
<transitLine id="northwest">
  <transitRoute id="northwest_1">
    <transportMode>pt</transportMode>
    <routeProfile>
      <stop refId="899" departureOffset="00:00:00" arrivalOffset="00:00:00" awaitDeparture="true"/>
      <stop refId="9911" departureOffset="00:30:00" arrivalOffset="00:30:00" awaitDeparture="true"/>
    </routeProfile>
    <route>
      <link refId="8-9"/>
      <link refId="9-11"/>
    </route>
    <departures>
      <departure id="1000" departureTime="10:05:00" vehicleRefId="1000"/>
    </departures>
  </transitRoute>
</transitLine>
</transitSchedule>
